[General]
network = flora_tdma.simulations.LoRaNetworkTest
**.maxTransmissionDuration = 60s
**.energyDetection = -110dBm

**.vector-recording = true

rng-class = "cMersenneTwister"

simtime-resolution = 100ms
repeat = 1

sim-time-limit = 3h

**.constraintAreaMaxX = 200m
**.constraintAreaMaxY = 200m

**.loRaNodes[*].numApps = 1
**.loRaNodes[*].app[0].typename = "SimpleLoRaApp"

#gateway features
**.numberOfGateways = 1
**.loRaGW[0].**.initialX = 100m
**.loRaGW[0].**.initialY = 100m
**.LoRaGWNic.radio.iAmGateway = true
**.loRaGW[*].**.initFromDisplayString = false
**.ipv4Delayer.config = xmldoc("cloudDelays.xml") # Please remove later (nullptr does not work)
**.loRaGW[0].packetForwarder.destPort = 1000 # Please remove

#power consumption features
**.loRaNodes[*].LoRaNic.radio.energyConsumer.typename = "LoRaEnergyConsumer"
**.loRaNodes[*].**.energySourceModule = "^.IdealEpEnergyStorage"
**.loRaNodes[*].LoRaNic.radio.energyConsumer.configFile = xmldoc("energyConsumptionParameters.xml")

**.LoRaNic.clock.typename = "SettableClock"
**.LoRaNic.clock.oscillator.driftRate = normal(0ppm, 30ppm)
**.LoRaNic.clock.defaultOverdueClockEventHandlingMode = "execute"

# Lambda: the possion proces parameter for loraapp generation in 1/lambda sec
#**.loRaNodes[*].app[*].lambda_app = 0.001 # The same as the other report
**.loRaNodes[*].app[*].lambda_app = 0.001
**.loRaNodes[*].app[*].dataSize = 254B
**.loRaNodes[*].LoRaNic.radio.transmitter.payloaddatasize = 254B

**.loRaNodes[*].**.initFromDisplayString = false

#general features
**.sigma = 3.57
**.constraintAreaMinX = 0m
**.constraintAreaMinY = 0m
**.constraintAreaMinZ = 0m
**.constraintAreaMaxZ = 0m

LoRaNetworkTest.**.radio.separateTransmissionParts = false
LoRaNetworkTest.**.radio.separateReceptionParts = false

**.radio.radioMediumModule = "LoRaMedium"
**.LoRaMedium.pathLossType = "LoRaLogNormalShadowing"
**.minInterferenceTime = 0s
**.displayAddresses = false

# cache features
**.LoRaMedium.mediumLimitCacheType = "LoRaMediumCache"
**.LoRaMedium.rangeFilter = "communicationRange"
**.LoRaMedium.neighborCacheType = "LoRaNeighborCache"
**.LoRaMedium.neighborCache.range = 546m
**.LoRaMedium.neighborCache.refillPeriod = 3000s

*.numberOfNodes = ${numNodes=10,20,30,40,50,60,70,80,90,100,110,120,130,140,150}
#*.numberOfNodes = ${numNodes=20}
output-scalar-file = results/flora-tdma-${numNodes}.sca
output-vector-file = results/flora-tdma-${numNodes}.vec

# Auto position for lora nodes
**.loRaNodes[0].**.initialX = 103.92m
**.loRaNodes[0].**.initialY = 103.82m
**.loRaNodes[1].**.initialX = 41.50m
**.loRaNodes[1].**.initialY = 134.84m
**.loRaNodes[2].**.initialX = 105.20m
**.loRaNodes[2].**.initialY = 88.45m
**.loRaNodes[3].**.initialX = 108.74m
**.loRaNodes[3].**.initialY = 89.43m
**.loRaNodes[4].**.initialX = 141.73m
**.loRaNodes[4].**.initialY = 127.88m
**.loRaNodes[5].**.initialX = 61.97m
**.loRaNodes[5].**.initialY = 139.89m
**.loRaNodes[6].**.initialX = 4.65m
**.loRaNodes[6].**.initialY = 103.73m
**.loRaNodes[7].**.initialX = 140.24m
**.loRaNodes[7].**.initialY = 60.61m
**.loRaNodes[8].**.initialX = 80.69m
**.loRaNodes[8].**.initialY = 43.53m
**.loRaNodes[9].**.initialX = 131.87m
**.loRaNodes[9].**.initialY = 128.73m
**.loRaNodes[10].**.initialX = 99.70m
**.loRaNodes[10].**.initialY = 104.00m
**.loRaNodes[11].**.initialX = 8.67m
**.loRaNodes[11].**.initialY = 78.54m
**.loRaNodes[12].**.initialX = 79.21m
**.loRaNodes[12].**.initialY = 132.57m
**.loRaNodes[13].**.initialX = 96.23m
**.loRaNodes[13].**.initialY = 42.04m
**.loRaNodes[14].**.initialX = 46.00m
**.loRaNodes[14].**.initialY = 180.20m
**.loRaNodes[15].**.initialX = 123.37m
**.loRaNodes[15].**.initialY = 115.24m
**.loRaNodes[16].**.initialX = 136.63m
**.loRaNodes[16].**.initialY = 68.24m
**.loRaNodes[17].**.initialX = 110.88m
**.loRaNodes[17].**.initialY = 96.78m
**.loRaNodes[18].**.initialX = 84.46m
**.loRaNodes[18].**.initialY = 117.58m
**.loRaNodes[19].**.initialX = 80.04m
**.loRaNodes[19].**.initialY = 152.69m
**.loRaNodes[20].**.initialX = 89.49m
**.loRaNodes[20].**.initialY = 56.00m
**.loRaNodes[21].**.initialX = 122.20m
**.loRaNodes[21].**.initialY = 122.15m
**.loRaNodes[22].**.initialX = 115.01m
**.loRaNodes[22].**.initialY = 132.17m
**.loRaNodes[23].**.initialX = 127.87m
**.loRaNodes[23].**.initialY = 71.62m
**.loRaNodes[24].**.initialX = 39.28m
**.loRaNodes[24].**.initialY = 170.58m
**.loRaNodes[25].**.initialX = 70.70m
**.loRaNodes[25].**.initialY = 193.90m
**.loRaNodes[26].**.initialX = 14.05m
**.loRaNodes[26].**.initialY = 81.81m
**.loRaNodes[27].**.initialX = 35.20m
**.loRaNodes[27].**.initialY = 126.86m
**.loRaNodes[28].**.initialX = 48.85m
**.loRaNodes[28].**.initialY = 113.92m
**.loRaNodes[29].**.initialX = 159.46m
**.loRaNodes[29].**.initialY = 27.15m
**.loRaNodes[30].**.initialX = 96.15m
**.loRaNodes[30].**.initialY = 14.94m
**.loRaNodes[31].**.initialX = 97.66m
**.loRaNodes[31].**.initialY = 139.81m
**.loRaNodes[32].**.initialX = 84.09m
**.loRaNodes[32].**.initialY = 104.87m
**.loRaNodes[33].**.initialX = 30.45m
**.loRaNodes[33].**.initialY = 56.29m
**.loRaNodes[34].**.initialX = 96.13m
**.loRaNodes[34].**.initialY = 98.02m
**.loRaNodes[35].**.initialX = 59.60m
**.loRaNodes[35].**.initialY = 44.91m
**.loRaNodes[36].**.initialX = 98.81m
**.loRaNodes[36].**.initialY = 96.88m
**.loRaNodes[37].**.initialX = 133.22m
**.loRaNodes[37].**.initialY = 140.12m
**.loRaNodes[38].**.initialX = 123.32m
**.loRaNodes[38].**.initialY = 143.33m
**.loRaNodes[39].**.initialX = 69.68m
**.loRaNodes[39].**.initialY = 131.74m
**.loRaNodes[40].**.initialX = 4.86m
**.loRaNodes[40].**.initialY = 101.70m
**.loRaNodes[41].**.initialX = 130.37m
**.loRaNodes[41].**.initialY = 134.91m
**.loRaNodes[42].**.initialX = 71.05m
**.loRaNodes[42].**.initialY = 118.21m
**.loRaNodes[43].**.initialX = 119.47m
**.loRaNodes[43].**.initialY = 146.83m
**.loRaNodes[44].**.initialX = 62.34m
**.loRaNodes[44].**.initialY = 99.79m
**.loRaNodes[45].**.initialX = 83.26m
**.loRaNodes[45].**.initialY = 36.61m
**.loRaNodes[46].**.initialX = 98.32m
**.loRaNodes[46].**.initialY = 84.72m
**.loRaNodes[47].**.initialX = 49.79m
**.loRaNodes[47].**.initialY = 117.85m
**.loRaNodes[48].**.initialX = 55.96m
**.loRaNodes[48].**.initialY = 94.50m
**.loRaNodes[49].**.initialX = 104.60m
**.loRaNodes[49].**.initialY = 65.95m
**.loRaNodes[50].**.initialX = 60.67m
**.loRaNodes[50].**.initialY = 115.72m
**.loRaNodes[51].**.initialX = 91.40m
**.loRaNodes[51].**.initialY = 96.79m
**.loRaNodes[52].**.initialX = 167.75m
**.loRaNodes[52].**.initialY = 107.79m
**.loRaNodes[53].**.initialX = 181.57m
**.loRaNodes[53].**.initialY = 48.92m
**.loRaNodes[54].**.initialX = 74.34m
**.loRaNodes[54].**.initialY = 173.63m
**.loRaNodes[55].**.initialX = 100.27m
**.loRaNodes[55].**.initialY = 98.17m
**.loRaNodes[56].**.initialX = 106.93m
**.loRaNodes[56].**.initialY = 84.90m
**.loRaNodes[57].**.initialX = 120.45m
**.loRaNodes[57].**.initialY = 39.11m
**.loRaNodes[58].**.initialX = 56.41m
**.loRaNodes[58].**.initialY = 161.15m
**.loRaNodes[59].**.initialX = 51.30m
**.loRaNodes[59].**.initialY = 121.77m
**.loRaNodes[60].**.initialX = 49.06m
**.loRaNodes[60].**.initialY = 134.56m
**.loRaNodes[61].**.initialX = 127.57m
**.loRaNodes[61].**.initialY = 141.50m
**.loRaNodes[62].**.initialX = 74.79m
**.loRaNodes[62].**.initialY = 108.31m
**.loRaNodes[63].**.initialX = 81.36m
**.loRaNodes[63].**.initialY = 142.90m
**.loRaNodes[64].**.initialX = 65.88m
**.loRaNodes[64].**.initialY = 68.46m
**.loRaNodes[65].**.initialX = 137.65m
**.loRaNodes[65].**.initialY = 18.19m
**.loRaNodes[66].**.initialX = 113.58m
**.loRaNodes[66].**.initialY = 96.43m
**.loRaNodes[67].**.initialX = 125.30m
**.loRaNodes[67].**.initialY = 23.23m
**.loRaNodes[68].**.initialX = 96.84m
**.loRaNodes[68].**.initialY = 5.83m
**.loRaNodes[69].**.initialX = 140.52m
**.loRaNodes[69].**.initialY = 178.53m
**.loRaNodes[70].**.initialX = 0.32m
**.loRaNodes[70].**.initialY = 101.24m
**.loRaNodes[71].**.initialX = 111.65m
**.loRaNodes[71].**.initialY = 100.27m
**.loRaNodes[72].**.initialX = 81.84m
**.loRaNodes[72].**.initialY = 61.98m
**.loRaNodes[73].**.initialX = 40.65m
**.loRaNodes[73].**.initialY = 70.73m
**.loRaNodes[74].**.initialX = 117.02m
**.loRaNodes[74].**.initialY = 107.53m
**.loRaNodes[75].**.initialX = 146.11m
**.loRaNodes[75].**.initialY = 71.36m
**.loRaNodes[76].**.initialX = 82.21m
**.loRaNodes[76].**.initialY = 53.03m
**.loRaNodes[77].**.initialX = 6.29m
**.loRaNodes[77].**.initialY = 119.73m
**.loRaNodes[78].**.initialX = 111.80m
**.loRaNodes[78].**.initialY = 115.62m
**.loRaNodes[79].**.initialX = 105.77m
**.loRaNodes[79].**.initialY = 146.88m
**.loRaNodes[80].**.initialX = 130.88m
**.loRaNodes[80].**.initialY = 176.99m
**.loRaNodes[81].**.initialX = 66.97m
**.loRaNodes[81].**.initialY = 117.58m
**.loRaNodes[82].**.initialX = 11.29m
**.loRaNodes[82].**.initialY = 84.58m
**.loRaNodes[83].**.initialX = 100.48m
**.loRaNodes[83].**.initialY = 99.87m
**.loRaNodes[84].**.initialX = 122.63m
**.loRaNodes[84].**.initialY = 172.20m
**.loRaNodes[85].**.initialX = 97.03m
**.loRaNodes[85].**.initialY = 103.75m
**.loRaNodes[86].**.initialX = 196.52m
**.loRaNodes[86].**.initialY = 80.93m
**.loRaNodes[87].**.initialX = 98.22m
**.loRaNodes[87].**.initialY = 56.24m
**.loRaNodes[88].**.initialX = 67.86m
**.loRaNodes[88].**.initialY = 43.72m
**.loRaNodes[89].**.initialX = 44.07m
**.loRaNodes[89].**.initialY = 73.74m
**.loRaNodes[90].**.initialX = 137.45m
**.loRaNodes[90].**.initialY = 108.58m
**.loRaNodes[91].**.initialX = 134.39m
**.loRaNodes[91].**.initialY = 135.00m
**.loRaNodes[92].**.initialX = 19.43m
**.loRaNodes[92].**.initialY = 151.84m
**.loRaNodes[93].**.initialX = 60.34m
**.loRaNodes[93].**.initialY = 20.34m
**.loRaNodes[94].**.initialX = 125.18m
**.loRaNodes[94].**.initialY = 131.79m
**.loRaNodes[95].**.initialX = 102.33m
**.loRaNodes[95].**.initialY = 129.66m
**.loRaNodes[96].**.initialX = 174.79m
**.loRaNodes[96].**.initialY = 102.15m
**.loRaNodes[97].**.initialX = 103.75m
**.loRaNodes[97].**.initialY = 73.86m
**.loRaNodes[98].**.initialX = 137.16m
**.loRaNodes[98].**.initialY = 16.52m
**.loRaNodes[99].**.initialX = 8.98m
**.loRaNodes[99].**.initialY = 91.33m
**.loRaNodes[100].**.initialX = 90.58m
**.loRaNodes[100].**.initialY = 124.03m
**.loRaNodes[101].**.initialX = 168.16m
**.loRaNodes[101].**.initialY = 45.36m
**.loRaNodes[102].**.initialX = 80.75m
**.loRaNodes[102].**.initialY = 60.75m
**.loRaNodes[103].**.initialX = 87.06m
**.loRaNodes[103].**.initialY = 88.06m
**.loRaNodes[104].**.initialX = 60.14m
**.loRaNodes[104].**.initialY = 174.93m
**.loRaNodes[105].**.initialX = 127.81m
**.loRaNodes[105].**.initialY = 121.91m
**.loRaNodes[106].**.initialX = 122.15m
**.loRaNodes[106].**.initialY = 77.54m
**.loRaNodes[107].**.initialX = 49.50m
**.loRaNodes[107].**.initialY = 100.13m
**.loRaNodes[108].**.initialX = 106.62m
**.loRaNodes[108].**.initialY = 68.67m
**.loRaNodes[109].**.initialX = 117.68m
**.loRaNodes[109].**.initialY = 99.60m
**.loRaNodes[110].**.initialX = 13.62m
**.loRaNodes[110].**.initialY = 95.14m
**.loRaNodes[111].**.initialX = 134.03m
**.loRaNodes[111].**.initialY = 91.17m
**.loRaNodes[112].**.initialX = 145.26m
**.loRaNodes[112].**.initialY = 63.82m
**.loRaNodes[113].**.initialX = 177.47m
**.loRaNodes[113].**.initialY = 100.79m
**.loRaNodes[114].**.initialX = 151.53m
**.loRaNodes[114].**.initialY = 142.70m
**.loRaNodes[115].**.initialX = 129.63m
**.loRaNodes[115].**.initialY = 58.83m
**.loRaNodes[116].**.initialX = 102.67m
**.loRaNodes[116].**.initialY = 95.33m
**.loRaNodes[117].**.initialX = 100.79m
**.loRaNodes[117].**.initialY = 167.11m
**.loRaNodes[118].**.initialX = 36.83m
**.loRaNodes[118].**.initialY = 36.68m
**.loRaNodes[119].**.initialX = 140.92m
**.loRaNodes[119].**.initialY = 107.48m
**.loRaNodes[120].**.initialX = 73.95m
**.loRaNodes[120].**.initialY = 23.72m
**.loRaNodes[121].**.initialX = 70.75m
**.loRaNodes[121].**.initialY = 139.39m
**.loRaNodes[122].**.initialX = 75.83m
**.loRaNodes[122].**.initialY = 87.21m
**.loRaNodes[123].**.initialX = 67.16m
**.loRaNodes[123].**.initialY = 61.39m
**.loRaNodes[124].**.initialX = 155.90m
**.loRaNodes[124].**.initialY = 86.73m
**.loRaNodes[125].**.initialX = 167.87m
**.loRaNodes[125].**.initialY = 128.00m
**.loRaNodes[126].**.initialX = 173.28m
**.loRaNodes[126].**.initialY = 38.41m
**.loRaNodes[127].**.initialX = 82.23m
**.loRaNodes[127].**.initialY = 84.05m
**.loRaNodes[128].**.initialX = 97.16m
**.loRaNodes[128].**.initialY = 133.65m
**.loRaNodes[129].**.initialX = 90.17m
**.loRaNodes[129].**.initialY = 166.89m
**.loRaNodes[130].**.initialX = 61.70m
**.loRaNodes[130].**.initialY = 104.87m
**.loRaNodes[131].**.initialX = 161.76m
**.loRaNodes[131].**.initialY = 98.07m
**.loRaNodes[132].**.initialX = 64.96m
**.loRaNodes[132].**.initialY = 31.05m
**.loRaNodes[133].**.initialX = 107.99m
**.loRaNodes[133].**.initialY = 186.95m
**.loRaNodes[134].**.initialX = 99.39m
**.loRaNodes[134].**.initialY = 92.75m
**.loRaNodes[135].**.initialX = 31.24m
**.loRaNodes[135].**.initialY = 148.78m
**.loRaNodes[136].**.initialX = 66.22m
**.loRaNodes[136].**.initialY = 122.63m
**.loRaNodes[137].**.initialX = 24.14m
**.loRaNodes[137].**.initialY = 80.80m
**.loRaNodes[138].**.initialX = 89.36m
**.loRaNodes[138].**.initialY = 119.27m
**.loRaNodes[139].**.initialX = 103.77m
**.loRaNodes[139].**.initialY = 88.46m
**.loRaNodes[140].**.initialX = 62.27m
**.loRaNodes[140].**.initialY = 98.45m
**.loRaNodes[141].**.initialX = 155.37m
**.loRaNodes[141].**.initialY = 42.65m
**.loRaNodes[142].**.initialX = 73.51m
**.loRaNodes[142].**.initialY = 140.69m
**.loRaNodes[143].**.initialX = 36.80m
**.loRaNodes[143].**.initialY = 48.91m
**.loRaNodes[144].**.initialX = 23.13m
**.loRaNodes[144].**.initialY = 96.81m
**.loRaNodes[145].**.initialX = 83.39m
**.loRaNodes[145].**.initialY = 27.05m
**.loRaNodes[146].**.initialX = 56.43m
**.loRaNodes[146].**.initialY = 135.56m
**.loRaNodes[147].**.initialX = 31.47m
**.loRaNodes[147].**.initialY = 135.43m
**.loRaNodes[148].**.initialX = 73.54m
**.loRaNodes[148].**.initialY = 59.23m
**.loRaNodes[149].**.initialX = 113.79m
**.loRaNodes[149].**.initialY = 107.06m
**.loRaNodes[150].**.initialX = 88.43m
**.loRaNodes[150].**.initialY = 91.28m
**.loRaNodes[151].**.initialX = 116.03m
**.loRaNodes[151].**.initialY = 1.84m
**.loRaNodes[152].**.initialX = 102.08m
**.loRaNodes[152].**.initialY = 117.18m
**.loRaNodes[153].**.initialX = 183.53m
**.loRaNodes[153].**.initialY = 79.80m
**.loRaNodes[154].**.initialX = 79.24m
**.loRaNodes[154].**.initialY = 101.67m
**.loRaNodes[155].**.initialX = 122.12m
**.loRaNodes[155].**.initialY = 103.30m
**.loRaNodes[156].**.initialX = 168.58m
**.loRaNodes[156].**.initialY = 43.75m
**.loRaNodes[157].**.initialX = 88.78m
**.loRaNodes[157].**.initialY = 120.22m
**.loRaNodes[158].**.initialX = 100.98m
**.loRaNodes[158].**.initialY = 116.08m
**.loRaNodes[159].**.initialX = 99.68m
**.loRaNodes[159].**.initialY = 126.75m
**.loRaNodes[160].**.initialX = 101.70m
**.loRaNodes[160].**.initialY = 178.71m
**.loRaNodes[161].**.initialX = 65.57m
**.loRaNodes[161].**.initialY = 40.84m
**.loRaNodes[162].**.initialX = 84.11m
**.loRaNodes[162].**.initialY = 153.79m
**.loRaNodes[163].**.initialX = 146.80m
**.loRaNodes[163].**.initialY = 46.17m
**.loRaNodes[164].**.initialX = 99.44m
**.loRaNodes[164].**.initialY = 100.69m
**.loRaNodes[165].**.initialX = 67.36m
**.loRaNodes[165].**.initialY = 46.31m
**.loRaNodes[166].**.initialX = 114.19m
**.loRaNodes[166].**.initialY = 104.13m
**.loRaNodes[167].**.initialX = 96.06m
**.loRaNodes[167].**.initialY = 131.38m
**.loRaNodes[168].**.initialX = 100.07m
**.loRaNodes[168].**.initialY = 100.76m
**.loRaNodes[169].**.initialX = 103.07m
**.loRaNodes[169].**.initialY = 144.79m
**.loRaNodes[170].**.initialX = 170.73m
**.loRaNodes[170].**.initialY = 62.44m
**.loRaNodes[171].**.initialX = 79.08m
**.loRaNodes[171].**.initialY = 122.91m
**.loRaNodes[172].**.initialX = 125.54m
**.loRaNodes[172].**.initialY = 86.75m
**.loRaNodes[173].**.initialX = 60.26m
**.loRaNodes[173].**.initialY = 94.66m
**.loRaNodes[174].**.initialX = 108.25m
**.loRaNodes[174].**.initialY = 141.36m
**.loRaNodes[175].**.initialX = 67.44m
**.loRaNodes[175].**.initialY = 33.08m
**.loRaNodes[176].**.initialX = 16.90m
**.loRaNodes[176].**.initialY = 145.68m
**.loRaNodes[177].**.initialX = 80.07m
**.loRaNodes[177].**.initialY = 88.93m
**.loRaNodes[178].**.initialX = 72.39m
**.loRaNodes[178].**.initialY = 131.80m
**.loRaNodes[179].**.initialX = 128.16m
**.loRaNodes[179].**.initialY = 127.14m
**.loRaNodes[180].**.initialX = 8.06m
**.loRaNodes[180].**.initialY = 78.23m
**.loRaNodes[181].**.initialX = 104.52m
**.loRaNodes[181].**.initialY = 57.47m
**.loRaNodes[182].**.initialX = 97.27m
**.loRaNodes[182].**.initialY = 85.25m
**.loRaNodes[183].**.initialX = 109.30m
**.loRaNodes[183].**.initialY = 103.62m
**.loRaNodes[184].**.initialX = 112.97m
**.loRaNodes[184].**.initialY = 122.73m
**.loRaNodes[185].**.initialX = 103.56m
**.loRaNodes[185].**.initialY = 78.95m
**.loRaNodes[186].**.initialX = 135.78m
**.loRaNodes[186].**.initialY = 20.61m
**.loRaNodes[187].**.initialX = 87.61m
**.loRaNodes[187].**.initialY = 111.35m
**.loRaNodes[188].**.initialX = 151.12m
**.loRaNodes[188].**.initialY = 100.23m
**.loRaNodes[189].**.initialX = 83.80m
**.loRaNodes[189].**.initialY = 38.85m
**.loRaNodes[190].**.initialX = 133.28m
**.loRaNodes[190].**.initialY = 64.84m
**.loRaNodes[191].**.initialX = 88.45m
**.loRaNodes[191].**.initialY = 105.50m
**.loRaNodes[192].**.initialX = 65.07m
**.loRaNodes[192].**.initialY = 150.38m
**.loRaNodes[193].**.initialX = 125.23m
**.loRaNodes[193].**.initialY = 196.15m
**.loRaNodes[194].**.initialX = 79.45m
**.loRaNodes[194].**.initialY = 85.67m
**.loRaNodes[195].**.initialX = 113.31m
**.loRaNodes[195].**.initialY = 100.19m
**.loRaNodes[196].**.initialX = 144.87m
**.loRaNodes[196].**.initialY = 97.61m
**.loRaNodes[197].**.initialX = 6.53m
**.loRaNodes[197].**.initialY = 79.23m
**.loRaNodes[198].**.initialX = 106.77m
**.loRaNodes[198].**.initialY = 84.54m
**.loRaNodes[199].**.initialX = 72.77m
**.loRaNodes[199].**.initialY = 122.62m
**.loRaNodes[200].**.initialX = 109.22m
**.loRaNodes[200].**.initialY = 89.61m
**.loRaNodes[201].**.initialX = 55.54m
**.loRaNodes[201].**.initialY = 164.85m
**.loRaNodes[202].**.initialX = 165.34m
**.loRaNodes[202].**.initialY = 99.79m
**.loRaNodes[203].**.initialX = 165.92m
**.loRaNodes[203].**.initialY = 30.57m
**.loRaNodes[204].**.initialX = 137.15m
**.loRaNodes[204].**.initialY = 192.00m
**.loRaNodes[205].**.initialX = 97.92m
**.loRaNodes[205].**.initialY = 133.28m
**.loRaNodes[206].**.initialX = 13.09m
**.loRaNodes[206].**.initialY = 88.89m
**.loRaNodes[207].**.initialX = 161.74m
**.loRaNodes[207].**.initialY = 158.36m
**.loRaNodes[208].**.initialX = 132.42m
**.loRaNodes[208].**.initialY = 138.86m
**.loRaNodes[209].**.initialX = 41.23m
**.loRaNodes[209].**.initialY = 180.73m
**.loRaNodes[210].**.initialX = 109.12m
**.loRaNodes[210].**.initialY = 20.66m
**.loRaNodes[211].**.initialX = 121.58m
**.loRaNodes[211].**.initialY = 99.12m
**.loRaNodes[212].**.initialX = 106.98m
**.loRaNodes[212].**.initialY = 46.50m
**.loRaNodes[213].**.initialX = 32.34m
**.loRaNodes[213].**.initialY = 142.11m
**.loRaNodes[214].**.initialX = 98.85m
**.loRaNodes[214].**.initialY = 108.08m
**.loRaNodes[215].**.initialX = 121.24m
**.loRaNodes[215].**.initialY = 158.26m
**.loRaNodes[216].**.initialX = 65.82m
**.loRaNodes[216].**.initialY = 74.47m
**.loRaNodes[217].**.initialX = 85.53m
**.loRaNodes[217].**.initialY = 81.53m
**.loRaNodes[218].**.initialX = 86.84m
**.loRaNodes[218].**.initialY = 88.77m
**.loRaNodes[219].**.initialX = 36.04m
**.loRaNodes[219].**.initialY = 53.40m
**.loRaNodes[220].**.initialX = 83.54m
**.loRaNodes[220].**.initialY = 63.00m
**.loRaNodes[221].**.initialX = 82.52m
**.loRaNodes[221].**.initialY = 110.82m
**.loRaNodes[222].**.initialX = 65.52m
**.loRaNodes[222].**.initialY = 70.18m
**.loRaNodes[223].**.initialX = 103.72m
**.loRaNodes[223].**.initialY = 136.62m
**.loRaNodes[224].**.initialX = 90.92m
**.loRaNodes[224].**.initialY = 133.38m
**.loRaNodes[225].**.initialX = 98.72m
**.loRaNodes[225].**.initialY = 88.22m
**.loRaNodes[226].**.initialX = 148.42m
**.loRaNodes[226].**.initialY = 32.13m
**.loRaNodes[227].**.initialX = 98.94m
**.loRaNodes[227].**.initialY = 97.52m
**.loRaNodes[228].**.initialX = 28.09m
**.loRaNodes[228].**.initialY = 88.22m
**.loRaNodes[229].**.initialX = 126.90m
**.loRaNodes[229].**.initialY = 31.84m
**.loRaNodes[230].**.initialX = 98.75m
**.loRaNodes[230].**.initialY = 74.26m
**.loRaNodes[231].**.initialX = 95.34m
**.loRaNodes[231].**.initialY = 110.46m
**.loRaNodes[232].**.initialX = 40.57m
**.loRaNodes[232].**.initialY = 110.57m
**.loRaNodes[233].**.initialX = 119.62m
**.loRaNodes[233].**.initialY = 90.11m
**.loRaNodes[234].**.initialX = 31.42m
**.loRaNodes[234].**.initialY = 130.43m
**.loRaNodes[235].**.initialX = 90.41m
**.loRaNodes[235].**.initialY = 56.58m
**.loRaNodes[236].**.initialX = 88.33m
**.loRaNodes[236].**.initialY = 107.17m
**.loRaNodes[237].**.initialX = 121.78m
**.loRaNodes[237].**.initialY = 112.27m
**.loRaNodes[238].**.initialX = 71.01m
**.loRaNodes[238].**.initialY = 103.05m
**.loRaNodes[239].**.initialX = 52.63m
**.loRaNodes[239].**.initialY = 42.38m
**.loRaNodes[240].**.initialX = 141.67m
**.loRaNodes[240].**.initialY = 111.56m
**.loRaNodes[241].**.initialX = 126.78m
**.loRaNodes[241].**.initialY = 106.56m
**.loRaNodes[242].**.initialX = 100.90m
**.loRaNodes[242].**.initialY = 145.76m
**.loRaNodes[243].**.initialX = 70.46m
**.loRaNodes[243].**.initialY = 43.89m
**.loRaNodes[244].**.initialX = 133.16m
**.loRaNodes[244].**.initialY = 75.57m
**.loRaNodes[245].**.initialX = 99.05m
**.loRaNodes[245].**.initialY = 164.91m
**.loRaNodes[246].**.initialX = 97.56m
**.loRaNodes[246].**.initialY = 97.39m
**.loRaNodes[247].**.initialX = 135.62m
**.loRaNodes[247].**.initialY = 175.20m
**.loRaNodes[248].**.initialX = 55.13m
**.loRaNodes[248].**.initialY = 54.34m
**.loRaNodes[249].**.initialX = 25.77m
**.loRaNodes[249].**.initialY = 100.36m
**.loRaNodes[250].**.initialX = 53.57m
**.loRaNodes[250].**.initialY = 169.81m
**.loRaNodes[251].**.initialX = 149.09m
**.loRaNodes[251].**.initialY = 135.06m
**.loRaNodes[252].**.initialX = 26.02m
**.loRaNodes[252].**.initialY = 132.49m
**.loRaNodes[253].**.initialX = 97.63m
**.loRaNodes[253].**.initialY = 103.45m
**.loRaNodes[254].**.initialX = 97.07m
**.loRaNodes[254].**.initialY = 89.02m
**.loRaNodes[255].**.initialX = 146.32m
**.loRaNodes[255].**.initialY = 67.30m
**.loRaNodes[256].**.initialX = 70.64m
**.loRaNodes[256].**.initialY = 76.17m
**.loRaNodes[257].**.initialX = 53.08m
**.loRaNodes[257].**.initialY = 166.78m
**.loRaNodes[258].**.initialX = 78.38m
**.loRaNodes[258].**.initialY = 55.44m
**.loRaNodes[259].**.initialX = 121.36m
**.loRaNodes[259].**.initialY = 72.40m
**.loRaNodes[260].**.initialX = 32.86m
**.loRaNodes[260].**.initialY = 56.95m
**.loRaNodes[261].**.initialX = 72.44m
**.loRaNodes[261].**.initialY = 45.42m
**.loRaNodes[262].**.initialX = 103.28m
**.loRaNodes[262].**.initialY = 103.07m
**.loRaNodes[263].**.initialX = 94.82m
**.loRaNodes[263].**.initialY = 109.39m
**.loRaNodes[264].**.initialX = 71.76m
**.loRaNodes[264].**.initialY = 68.28m
**.loRaNodes[265].**.initialX = 31.42m
**.loRaNodes[265].**.initialY = 153.57m
**.loRaNodes[266].**.initialX = 126.29m
**.loRaNodes[266].**.initialY = 91.91m
**.loRaNodes[267].**.initialX = 105.11m
**.loRaNodes[267].**.initialY = 17.93m
**.loRaNodes[268].**.initialX = 87.02m
**.loRaNodes[268].**.initialY = 89.58m
**.loRaNodes[269].**.initialX = 139.79m
**.loRaNodes[269].**.initialY = 89.54m
**.loRaNodes[270].**.initialX = 151.12m
**.loRaNodes[270].**.initialY = 125.06m
**.loRaNodes[271].**.initialX = 105.89m
**.loRaNodes[271].**.initialY = 124.28m
**.loRaNodes[272].**.initialX = 193.32m
**.loRaNodes[272].**.initialY = 76.23m
**.loRaNodes[273].**.initialX = 100.64m
**.loRaNodes[273].**.initialY = 124.26m
**.loRaNodes[274].**.initialX = 79.55m
**.loRaNodes[274].**.initialY = 106.91m
**.loRaNodes[275].**.initialX = 31.71m
**.loRaNodes[275].**.initialY = 122.10m
**.loRaNodes[276].**.initialX = 23.15m
**.loRaNodes[276].**.initialY = 38.48m
**.loRaNodes[277].**.initialX = 140.41m
**.loRaNodes[277].**.initialY = 66.93m
**.loRaNodes[278].**.initialX = 116.65m
**.loRaNodes[278].**.initialY = 140.77m
**.loRaNodes[279].**.initialX = 73.13m
**.loRaNodes[279].**.initialY = 110.00m
**.loRaNodes[280].**.initialX = 62.43m
**.loRaNodes[280].**.initialY = 97.93m
**.loRaNodes[281].**.initialX = 78.77m
**.loRaNodes[281].**.initialY = 138.39m
**.loRaNodes[282].**.initialX = 100.76m
**.loRaNodes[282].**.initialY = 42.35m
**.loRaNodes[283].**.initialX = 91.95m
**.loRaNodes[283].**.initialY = 74.44m
**.loRaNodes[284].**.initialX = 102.03m
**.loRaNodes[284].**.initialY = 100.56m
**.loRaNodes[285].**.initialX = 100.50m
**.loRaNodes[285].**.initialY = 100.69m
**.loRaNodes[286].**.initialX = 149.78m
**.loRaNodes[286].**.initialY = 129.76m
**.loRaNodes[287].**.initialX = 137.36m
**.loRaNodes[287].**.initialY = 132.49m
**.loRaNodes[288].**.initialX = 121.82m
**.loRaNodes[288].**.initialY = 165.59m
**.loRaNodes[289].**.initialX = 78.92m
**.loRaNodes[289].**.initialY = 7.72m
**.loRaNodes[290].**.initialX = 107.14m
**.loRaNodes[290].**.initialY = 130.67m
**.loRaNodes[291].**.initialX = 151.41m
**.loRaNodes[291].**.initialY = 88.98m
**.loRaNodes[292].**.initialX = 99.64m
**.loRaNodes[292].**.initialY = 100.86m
**.loRaNodes[293].**.initialX = 45.31m
**.loRaNodes[293].**.initialY = 133.27m
**.loRaNodes[294].**.initialX = 94.91m
**.loRaNodes[294].**.initialY = 101.63m
**.loRaNodes[295].**.initialX = 170.88m
**.loRaNodes[295].**.initialY = 138.00m
**.loRaNodes[296].**.initialX = 128.03m
**.loRaNodes[296].**.initialY = 130.45m
**.loRaNodes[297].**.initialX = 153.25m
**.loRaNodes[297].**.initialY = 112.05m
**.loRaNodes[298].**.initialX = 78.62m
**.loRaNodes[298].**.initialY = 60.24m
**.loRaNodes[299].**.initialX = 137.76m
**.loRaNodes[299].**.initialY = 52.66m
**.loRaNodes[300].**.initialX = 67.92m
**.loRaNodes[300].**.initialY = 72.40m
**.loRaNodes[301].**.initialX = 110.60m
**.loRaNodes[301].**.initialY = 108.33m
**.loRaNodes[302].**.initialX = 24.73m
**.loRaNodes[302].**.initialY = 85.61m
**.loRaNodes[303].**.initialX = 133.81m
**.loRaNodes[303].**.initialY = 67.74m
**.loRaNodes[304].**.initialX = 116.13m
**.loRaNodes[304].**.initialY = 91.02m
**.loRaNodes[305].**.initialX = 154.21m
**.loRaNodes[305].**.initialY = 136.06m
**.loRaNodes[306].**.initialX = 117.15m
**.loRaNodes[306].**.initialY = 146.46m
**.loRaNodes[307].**.initialX = 116.61m
**.loRaNodes[307].**.initialY = 55.74m
**.loRaNodes[308].**.initialX = 102.90m
**.loRaNodes[308].**.initialY = 108.80m
**.loRaNodes[309].**.initialX = 46.60m
**.loRaNodes[309].**.initialY = 66.82m
**.loRaNodes[310].**.initialX = 59.31m
**.loRaNodes[310].**.initialY = 81.46m
**.loRaNodes[311].**.initialX = 162.66m
**.loRaNodes[311].**.initialY = 127.07m
**.loRaNodes[312].**.initialX = 104.12m
**.loRaNodes[312].**.initialY = 96.98m
**.loRaNodes[313].**.initialX = 37.95m
**.loRaNodes[313].**.initialY = 110.56m
**.loRaNodes[314].**.initialX = 93.11m
**.loRaNodes[314].**.initialY = 94.47m
**.loRaNodes[315].**.initialX = 125.24m
**.loRaNodes[315].**.initialY = 194.91m
**.loRaNodes[316].**.initialX = 7.83m
**.loRaNodes[316].**.initialY = 116.69m
**.loRaNodes[317].**.initialX = 57.60m
**.loRaNodes[317].**.initialY = 164.84m
**.loRaNodes[318].**.initialX = 15.12m
**.loRaNodes[318].**.initialY = 118.00m
**.loRaNodes[319].**.initialX = 21.96m
**.loRaNodes[319].**.initialY = 64.65m
**.loRaNodes[320].**.initialX = 56.81m
**.loRaNodes[320].**.initialY = 115.38m
**.loRaNodes[321].**.initialX = 83.75m
**.loRaNodes[321].**.initialY = 80.82m
**.loRaNodes[322].**.initialX = 132.32m
**.loRaNodes[322].**.initialY = 122.13m
**.loRaNodes[323].**.initialX = 109.31m
**.loRaNodes[323].**.initialY = 102.02m
**.loRaNodes[324].**.initialX = 122.67m
**.loRaNodes[324].**.initialY = 158.19m
**.loRaNodes[325].**.initialX = 89.07m
**.loRaNodes[325].**.initialY = 50.32m
**.loRaNodes[326].**.initialX = 141.03m
**.loRaNodes[326].**.initialY = 79.58m
**.loRaNodes[327].**.initialX = 59.93m
**.loRaNodes[327].**.initialY = 24.41m
**.loRaNodes[328].**.initialX = 100.18m
**.loRaNodes[328].**.initialY = 101.26m
**.loRaNodes[329].**.initialX = 151.25m
**.loRaNodes[329].**.initialY = 97.22m
**.loRaNodes[330].**.initialX = 85.88m
**.loRaNodes[330].**.initialY = 138.58m
**.loRaNodes[331].**.initialX = 103.62m
**.loRaNodes[331].**.initialY = 113.79m
**.loRaNodes[332].**.initialX = 87.62m
**.loRaNodes[332].**.initialY = 159.80m
**.loRaNodes[333].**.initialX = 128.91m
**.loRaNodes[333].**.initialY = 189.66m
**.loRaNodes[334].**.initialX = 66.56m
**.loRaNodes[334].**.initialY = 54.27m
**.loRaNodes[335].**.initialX = 125.02m
**.loRaNodes[335].**.initialY = 157.61m
**.loRaNodes[336].**.initialX = 127.18m
**.loRaNodes[336].**.initialY = 6.94m
**.loRaNodes[337].**.initialX = 44.52m
**.loRaNodes[337].**.initialY = 34.49m
**.loRaNodes[338].**.initialX = 12.02m
**.loRaNodes[338].**.initialY = 98.31m
**.loRaNodes[339].**.initialX = 92.91m
**.loRaNodes[339].**.initialY = 51.12m
**.loRaNodes[340].**.initialX = 95.88m
**.loRaNodes[340].**.initialY = 119.23m
**.loRaNodes[341].**.initialX = 48.02m
**.loRaNodes[341].**.initialY = 29.09m
**.loRaNodes[342].**.initialX = 80.81m
**.loRaNodes[342].**.initialY = 64.54m
**.loRaNodes[343].**.initialX = 49.70m
**.loRaNodes[343].**.initialY = 148.62m
**.loRaNodes[344].**.initialX = 146.54m
**.loRaNodes[344].**.initialY = 86.83m
**.loRaNodes[345].**.initialX = 133.25m
**.loRaNodes[345].**.initialY = 76.94m
**.loRaNodes[346].**.initialX = 109.19m
**.loRaNodes[346].**.initialY = 169.33m
**.loRaNodes[347].**.initialX = 165.40m
**.loRaNodes[347].**.initialY = 123.80m
**.loRaNodes[348].**.initialX = 73.39m
**.loRaNodes[348].**.initialY = 118.46m
**.loRaNodes[349].**.initialX = 78.17m
**.loRaNodes[349].**.initialY = 35.47m
**.loRaNodes[350].**.initialX = 48.88m
**.loRaNodes[350].**.initialY = 132.46m
**.loRaNodes[351].**.initialX = 116.19m